@<TRIPOS>MOLECULE
hem_1w0e.pdb
73 80 1 0 0
SMALL
AMBER ff14SB


@<TRIPOS>ATOM
      1 FE         54.2673   77.7523   11.4840 Fe        1 HEM    2.0000
      2 CHA        54.1844   81.1117   10.8156 C.ar      1 HEM   -0.0100
      3 CHB        50.9306   77.5713   10.6740 C.ar      1 HEM   -0.0100
      4 CHC        54.2600   74.4184   12.1753 C.ar      1 HEM   -0.0097
      5 CHD        57.5355   77.9509   12.2537 C.ar      1 HEM   -0.0097
      6 NA         52.8496   79.0726   10.8386 N.ar      1 HEM   -0.2483
      7 C1A        52.9965   80.4162   10.6148 C.ar      1 HEM    0.0694
      8 C2A        51.7290   80.9649   10.1218 C.ar      1 HEM   -0.0167
      9 C3A        50.8533   79.9706   10.0962 C.ar      1 HEM   -0.0199
     10 C4A        51.5441   78.8028   10.5520 C.ar      1 HEM    0.0691
     11 CMA        49.4221   80.0286    9.6567 C.3       1 HEM   -0.0373
     12 CAA        51.4387   82.3656    9.7106 C.3       1 HEM   -0.0202
     13 CBA        51.5111   82.5343    8.2054 C.3       1 HEM   -0.0090
     14 CGA        51.1350   83.9064    7.7171 C.2       1 HEM    0.0417
     15 O1A        51.1472   84.1222    6.4832 O.co2     1 HEM   -0.5502
     16 O2A        50.7819   84.7588    8.5578 O.co2     1 HEM   -0.5502
     17 NB         52.8552   76.2746   11.4499 N.ar      1 HEM   -0.2480
     18 C1B        51.5326   76.4008   11.0976 C.ar      1 HEM    0.0694
     19 C2B        50.8348   75.1275   11.2282 C.2       1 HEM   -0.0159
     20 C3B        51.7728   74.2478   11.6659 C.2       1 HEM    0.0047
     21 C4B        53.0334   74.9765   11.7748 C.ar      1 HEM    0.0734
     22 CMB        49.3766   74.9123   10.9292 C.3       1 HEM   -0.0370
     23 CAB        51.6787   72.8075   11.9975 C.2       1 HEM   -0.0597
     24 CBB        50.6407   72.0800   12.3588 C.2       1 HEM   -0.0984
     25 NC         55.6753   76.3699   12.1117 N.ar      1 HEM   -0.2480
     26 C1C        55.4690   75.0449   12.3121 C.ar      1 HEM    0.0694
     27 C2C        56.7079   74.3977   12.6459 C.2       1 HEM   -0.0159
     28 C3C        57.6536   75.3721   12.6584 C.2       1 HEM    0.0047
     29 C4C        56.9642   76.6358   12.3322 C.ar      1 HEM    0.0734
     30 CMC        56.8339   72.9117   12.9137 C.3       1 HEM   -0.0370
     31 CAC        59.0878   75.2454   12.9438 C.2       1 HEM   -0.0597
     32 CBC        60.1012   75.5405   12.1151 C.2       1 HEM   -0.0984
     33 ND         55.5929   79.2933   11.5477 N.ar      1 HEM   -0.2483
     34 C1D        56.9029   79.1733   11.9187 C.ar      1 HEM    0.0691
     35 C2D        57.5547   80.4464   11.8589 C.ar      1 HEM   -0.0199
     36 C3D        56.6153   81.3398   11.4554 C.ar      1 HEM   -0.0167
     37 C4D        55.3806   80.6049   11.2603 C.ar      1 HEM    0.0694
     38 CMD        58.9701   80.7295   12.1710 C.3       1 HEM   -0.0373
     39 CAD        56.8736   82.7870   11.2670 C.3       1 HEM   -0.0202
     40 CBD        57.4546   83.0885    9.8860 C.3       1 HEM   -0.0090
     41 CGD        57.7742   84.5582    9.6857 C.2       1 HEM    0.0417
     42 O1D        58.8121   84.7373    9.0116 O.co2     1 HEM   -0.5502
     43 O2D        57.0049   85.5188   10.1351 O.co2     1 HEM   -0.5502
     44 HHA        54.1634   82.1692   10.5972 H         1 HEM    0.0669
     45 HHB        49.8836   77.5177   10.4145 H         1 HEM    0.0669
     46 HHC        54.2465   73.3629   12.4035 H         1 HEM    0.0669
     47 HHD        58.5893   78.0168   12.4805 H         1 HEM    0.0669
     48 HAA2       50.4372   82.6324   10.0481 H         1 HEM    0.0321
     49 HAA3       52.1625   83.0322   10.1794 H         1 HEM    0.0321
     50 HBA2       52.5330   82.3274    7.8877 H         1 HEM    0.0332
     51 HBA3       50.8474   81.8051    7.7408 H         1 HEM    0.0332
     52 HAB        52.6108   72.2659   11.9328 H         1 HEM    0.0624
     53 HAC        59.3554   74.8762   13.9228 H         1 HEM    0.0624
     54 HAD2       55.9351   83.3297   11.3803 H         1 HEM    0.0321
     55 HAD3       57.5748   83.1255   12.0298 H         1 HEM    0.0321
     56 HBD2       56.7301   82.7845    9.1304 H         1 HEM    0.0332
     57 HBD3       58.3674   82.5078    9.7530 H         1 HEM    0.0332
     58 HBB1       50.7644   71.0268   12.5635 H         1 HEM    0.0538
     59 HBB2       49.6664   72.5370   12.4501 H         1 HEM    0.0538
     60 HBC1       61.1219   75.4047   12.4406 H         1 HEM    0.0538
     61 HBC2       59.8960   75.9139   11.1227 H         1 HEM    0.0538
     62 HMB1       49.1175   73.8696   11.1133 H         1 HEM    0.0281
     63 HMB2       48.7754   75.5548   11.5724 H         1 HEM    0.0281
     64 HMB3       49.1799   75.1567    9.8853 H         1 HEM    0.0281
     65 HMD1       59.4699   79.8060   12.4637 H         1 HEM    0.0281
     66 HMD2       59.0250   81.4471   12.9895 H         1 HEM    0.0281
     67 HMD3       59.4604   81.1445   11.2904 H         1 HEM    0.0281
     68 HMA1       48.9715   79.0409    9.7535 H         1 HEM    0.0281
     69 HMA2       48.8791   80.7382   10.2810 H         1 HEM    0.0281
     70 HMA3       49.3744   80.3494    8.6161 H         1 HEM    0.0281
     71 HMC1       57.8702   72.6713   13.1510 H         1 HEM    0.0281
     72 HMC2       56.5258   72.3558   12.0282 H         1 HEM    0.0281
     73 HMC3       56.1959   72.6387   13.7543 H         1 HEM    0.0281
@<TRIPOS>BOND
     1    7    6 ar
     2    7    8 ar
     3    7    2 ar
     4   18    3 ar
     5   18   17 ar
     6   18   19 1
     7   26    4 ar
     8   26   27 1
     9   26   25 ar
    10   34    5 ar
    11   34   33 ar
    12   34   35 ar
    13    8    9 ar
    14    8   12 1
    15   19   22 1
    16   19   20 2
    17   27   30 1
    18   27   28 2
    19   35   36 ar
    20   35   38 1
    21    9   11 1
    22    9   10 ar
    23   20   23 2
    24   20   21 1
    25   28   31 2
    26   28   29 1
    27   36   39 1
    28   36   37 ar
    29   10    6 ar
    30   10    3 ar
    31   21    4 ar
    32   21   17 ar
    33   29    5 ar
    34   29   25 ar
    35   37    2 ar
    36   37   33 ar
    37   12   13 1
    38   23   24 2
    39   31   32 2
    40   39   40 1
    41   13   14 1
    42   40   41 1
    43   14   15 2
    44   14   16 2
    45   41   43 2
    46   41   42 2
    47   44    2 1
    48   45    3 1
    49   46    4 1
    50   47    5 1
    51   48   12 1
    52   49   12 1
    53   50   13 1
    54   51   13 1
    55   52   23 1
    56   53   31 1
    57   54   39 1
    58   55   39 1
    59   56   40 1
    60   57   40 1
    61   58   24 1
    62   59   24 1
    63   60   32 1
    64   61   32 1
    65   62   22 1
    66   63   22 1
    67   64   22 1
    68   65   38 1
    69   66   38 1
    70   67   38 1
    71   68   11 1
    72   69   11 1
    73   70   11 1
    74   71   30 1
    75   72   30 1
    76   73   30 1
    77    1   33 1
    78    1   17 1
    79    1    6 1
    80    1   25 1
@<TRIPOS>SUBSTRUCTURE
     1 HEM     1 RESIDUE           4 A     HEM     0 ROOT
