@<TRIPOS>MOLECULE
7C74.pdb
43 50 1 0 0
SMALL
NO_CHARGES


@<TRIPOS>ATOM
      1 CHA         9.6920    0.3170   27.9160 C.ar      1 HEM    0.0000
      2 CHB        10.1440    5.0600   27.9980 C.ar      1 HEM    0.0000
      3 CHC        11.8860    4.8800   23.4300 C.ar      1 HEM    0.0000
      4 CHD        11.6180    0.0810   23.4880 C.ar      1 HEM    0.0000
      5 C1A         9.6830    1.6150   28.3150 C.ar      1 HEM    0.0000
      6 C2A         9.1250    2.0430   29.5260 C.ar      1 HEM    0.0000
      7 C3A         9.2590    3.3790   29.5790 C.ar      1 HEM    0.0000
      8 C4A         9.8830    3.7700   28.3710 C.ar      1 HEM    0.0000
      9 CMA         8.8230    4.2510   30.7330 C.3       1 HEM    0.0000
     10 CAA         8.5450    1.1530   30.6080 C.3       1 HEM    0.0000
     11 CBA         9.7660    0.5420   31.3080 C.3       1 HEM    0.0000
     12 CGA         9.4020   -0.1140   32.6130 C.2       1 HEM    0.0000
     13 O1A         9.7660   -1.2950   32.9110 O.co2     1 HEM    0.0000
     14 O2A         8.7240    0.5520   33.4180 O.co2     1 HEM    0.0000
     15 C1B        10.6190    5.4040   26.7200 C.ar      1 HEM    0.0000
     16 C2B        10.7410    6.7550   26.3070 C.2       1 HEM    0.0000
     17 C3B        11.2350    6.7420   25.0190 C.2       1 HEM    0.0000
     18 C4B        11.3990    5.3140   24.6640 C.ar      1 HEM    0.0000
     19 CMB        10.3690    7.9300   27.1870 C.3       1 HEM    0.0000
     20 CAB        11.5960    7.8510   24.1110 C.2       1 HEM    0.0000
     21 CBB        11.5950    9.1360   24.4510 C.2       1 HEM    0.0000
     22 C1C        12.0040    3.5570   23.0300 C.ar      1 HEM    0.0000
     23 C2C        12.5380    3.0570   21.8180 C.ar      1 HEM    0.0000
     24 C3C        12.4410    1.6750   21.8330 C.ar      1 HEM    0.0000
     25 C4C        11.8770    1.3570   23.0780 C.ar      1 HEM    0.0000
     26 CMC        13.1090    3.8750   20.6830 C.3       1 HEM    0.0000
     27 CAC        12.9020    0.6720   20.8380 C.2       1 HEM    0.0000
     28 CBC        13.6790    0.9380   19.7840 C.2       1 HEM    0.0000
     29 C1D        11.0220   -0.2060   24.7350 C.ar      1 HEM    0.0000
     30 C2D        10.5860   -1.5700   25.0570 C.2       1 HEM    0.0000
     31 C3D        10.0580   -1.5120   26.2760 C.2       1 HEM    0.0000
     32 C4D        10.1640   -0.1030   26.6820 C.ar      1 HEM    0.0000
     33 CMD        10.7450   -2.8250   24.2120 C.3       1 HEM    0.0000
     34 CAD         9.4550   -2.6770   27.0380 C.3       1 HEM    0.0000
     35 CBD         7.9580   -2.7130   26.6810 C.3       1 HEM    0.0000
     36 CGD         7.1790   -3.7590   27.4530 C.2       1 HEM    0.0000
     37 O1D         6.7600   -3.5090   28.6060 O.co2     1 HEM    0.0000
     38 O2D         6.9170   -4.8850   26.9710 O.co2     1 HEM    0.0000
     39 NA         10.1560    2.6780   27.6080 N.ar      1 HEM    0.0000
     40 NB         11.0160    4.5860   25.7210 N.ar      1 HEM    0.0000
     41 NC         11.6260    2.5070   23.7940 N.ar      1 HEM    0.0000
     42 ND         10.7340    0.6310   25.7390 N.ar      1 HEM    0.0000
     43 FE         11.0140    2.4890   25.8090 Fe        1 HEM    0.0000
@<TRIPOS>BOND
     1    1    5 ar
     2    1   32 ar
     3    2    8 ar
     4    2   15 ar
     5    3   18 ar
     6    3   22 ar
     7    4   25 ar
     8    4   29 ar
     9    5    6 ar
    10    5   39 ar
    11    6    7 ar
    12    6   10 1
    13    7    8 ar
    14    7    9 1
    15    8   39 ar
    16   10   11 1
    17   11   12 1
    18   12   13 2
    19   12   14 2
    20   15   16 1
    21   15   40 ar
    22   16   17 2
    23   16   19 1
    24   17   18 1
    25   17   20 2
    26   18   40 ar
    27   20   21 2
    28   22   23 ar
    29   22   41 ar
    30   23   24 ar
    31   23   26 1
    32   24   25 ar
    33   24   27 1
    34   25   41 ar
    35   27   28 2
    36   29   30 1
    37   29   42 ar
    38   30   31 2
    39   30   33 1
    40   31   32 1
    41   31   34 1
    42   32   42 ar
    43   34   35 1
    44   35   36 1
    45   36   37 2
    46   36   38 2
    47   43   42 1
    48   43   39 1
    49   43   40 1
    50   43   41 1
@<TRIPOS>SUBSTRUCTURE
     1 HEM     1 RESIDUE           4 A     HEM     0 ROOT
