@<TRIPOS>MOLECULE
7DMR.pdb
48 55 1 0 0
SMALL
NO_CHARGES


@<TRIPOS>ATOM
      1 CHA        31.8560    8.9660    4.8710 C.ar      1 HEM    0.0000
      2 CHB        27.0620    8.9220    4.6730 C.ar      1 HEM    0.0000
      3 CHC        27.2610    5.9070    0.8980 C.ar      1 HEM    0.0000
      4 CHD        32.0760    5.8110    1.2250 C.ar      1 HEM    0.0000
      5 C1A        30.5470    9.2230    5.0660 C.ar      1 HEM    0.0000
      6 C2A        30.0980   10.0650    6.1190 C.ar      1 HEM    0.0000
      7 C3A        28.7460   10.0450    6.0710 C.ar      1 HEM    0.0000
      8 C4A        28.3660    9.2000    4.9970 C.ar      1 HEM    0.0000
      9 CMA        27.7940   10.7590    6.9720 C.3       1 HEM    0.0000
     10 CAA        30.9820   10.8430    7.0900 C.3       1 HEM    0.0000
     11 CBA        31.2630   12.2430    6.5120 C.3       1 HEM    0.0000
     12 CGA        32.3100   13.0470    7.2880 C.2       1 HEM    0.0000
     13 O1A        33.4320   13.2900    6.8090 O.co2     1 HEM    0.0000
     14 O2A        32.1430   13.5520    8.4290 O.co2     1 HEM    0.0000
     15 C1B        26.6920    8.0510    3.6510 C.ar      1 HEM    0.0000
     16 C2B        25.3170    7.7050    3.3700 C.2       1 HEM    0.0000
     17 C3B        25.3510    6.8310    2.3100 C.2       1 HEM    0.0000
     18 C4B        26.7970    6.7060    1.9380 C.ar      1 HEM    0.0000
     19 CMB        24.0760    8.1450    4.1320 C.3       1 HEM    0.0000
     20 CAB        24.2670    6.1950    1.5350 C.2       1 HEM    0.0000
     21 CBB        22.9780    6.6010    1.5580 C.2       1 HEM    0.0000
     22 C1C        28.5980    5.6080    0.6440 C.ar      1 HEM    0.0000
     23 C2C        29.0990    4.7920   -0.3820 C.ar      1 HEM    0.0000
     24 C3C        30.4630    4.7460   -0.2790 C.ar      1 HEM    0.0000
     25 C4C        30.7840    5.5740    0.7960 C.ar      1 HEM    0.0000
     26 CMC        28.2290    4.0910   -1.3720 C.3       1 HEM    0.0000
     27 CAC        31.4800    4.0740   -1.1150 C.2       1 HEM    0.0000
     28 CBC        31.2450    3.4510   -2.2730 C.2       1 HEM    0.0000
     29 C1D        32.4280    6.6520    2.2950 C.ar      1 HEM    0.0000
     30 C2D        33.8260    6.7760    2.8240 C.2       1 HEM    0.0000
     31 C3D        33.7980    7.6790    3.8790 C.2       1 HEM    0.0000
     32 C4D        32.3430    8.0680    3.9450 C.ar      1 HEM    0.0000
     33 CMD        34.9880    6.0190    2.2420 C.3       1 HEM    0.0000
     34 CAD        34.9140    8.1430    4.8100 C.3       1 HEM    0.0000
     35 CAD        34.9380    8.1560    4.7800 C.3       1 HEM    0.0000
     36 CBD        35.0000    7.0620    5.9250 C.3       1 HEM    0.0000
     37 CBD        35.1000    7.1510    5.9280 C.3       1 HEM    0.0000
     38 CGD        33.6330    6.5170    6.3220 C.2       1 HEM    0.0000
     39 CGD        36.0830    7.5820    7.0360 C.2       1 HEM    0.0000
     40 O1D        33.0910    5.6410    5.6000 O.co2     1 HEM    0.0000
     41 O1D        37.3290    7.3520    6.9490 O.co2     1 HEM    0.0000
     42 O2D        32.9550    6.9440    7.3130 O.co2     1 HEM    0.0000
     43 O2D        35.6070    8.1550    8.0640 O.co2     1 HEM    0.0000
     44 NA         29.4830    8.6800    4.3990 N.ar      1 HEM    0.0000
     45 NB         27.5370    7.4540    2.7840 N.ar      1 HEM    0.0000
     46 NC         29.6420    6.0970    1.3230 N.ar      1 HEM    0.0000
     47 ND         31.5780    7.4370    2.9920 N.ar      1 HEM    0.0000
     48 FE         29.6800    7.5980    2.7480 Fe        1 HEM    0.0000
@<TRIPOS>BOND
     1    1    5 ar
     2    1   32 ar
     3    2    8 ar
     4    2   15 ar
     5    3   18 ar
     6    3   22 ar
     7    4   25 ar
     8    4   29 ar
     9    5    6 ar
    10    5   44 ar
    11    6    7 ar
    12    6   10 1
    13    7    8 ar
    14    7    9 1
    15    8   44 ar
    16   10   11 1
    17   11   12 1
    18   12   13 2
    19   12   14 2
    20   15   16 1
    21   15   45 ar
    22   16   17 2
    23   16   19 1
    24   17   18 1
    25   17   20 2
    26   18   45 ar
    27   20   21 2
    28   22   23 ar
    29   22   46 ar
    30   23   24 ar
    31   23   26 1
    32   24   25 ar
    33   24   27 1
    34   25   46 ar
    35   27   28 2
    36   29   30 1
    37   29   47 ar
    38   30   31 2
    39   30   33 1
    40   31   32 1
    41   31   34 1
    42   31   35 1
    43   32   47 ar
    44   34   36 1
    45   35   37 1
    46   36   38 1
    47   37   39 1
    48   38   40 2
    49   38   42 2
    50   39   41 2
    51   39   43 2
    52   48   44 1
    53   48   45 1
    54   48   46 1
    55   48   47 1
@<TRIPOS>SUBSTRUCTURE
     1 HEM     1 RESIDUE           4 A     HEM     0 ROOT
